Version 4
SHEET 1 3656 1204
WIRE 2736 -176 2640 -176
WIRE 2912 -176 2896 -176
WIRE 2736 -144 2640 -144
WIRE 3040 -128 2896 -128
WIRE 2704 -96 2688 -96
WIRE 2736 -96 2704 -96
WIRE 2336 -64 2336 -96
WIRE 2912 -64 2896 -64
WIRE 2736 -48 2688 -48
WIRE 2688 -16 2688 -48
WIRE 3040 16 3040 -128
WIRE 3088 16 3040 16
WIRE 3264 16 3168 16
WIRE 2736 48 2640 48
WIRE 2912 48 2896 48
WIRE 2336 64 2336 16
WIRE 2736 80 2640 80
WIRE 3088 96 2896 96
WIRE 3264 96 3264 16
WIRE 3264 96 3168 96
WIRE 2704 128 2688 128
WIRE 2736 128 2704 128
WIRE 2912 160 2896 160
WIRE 2736 176 2688 176
WIRE 3088 176 3040 176
WIRE 3264 176 3264 96
WIRE 3264 176 3168 176
WIRE 2688 208 2688 176
WIRE 2736 272 2640 272
WIRE 2912 272 2896 272
WIRE 2736 304 2640 304
WIRE 224 320 224 288
WIRE 3040 320 3040 176
WIRE 3040 320 2896 320
WIRE 624 336 624 304
WIRE 1376 352 1376 320
WIRE 2704 352 2688 352
WIRE 2736 352 2704 352
WIRE 2912 384 2896 384
WIRE 2736 400 2688 400
WIRE 2688 432 2688 400
WIRE 224 448 224 400
WIRE 624 464 624 416
WIRE 1376 480 1376 432
WIRE 624 592 624 560
WIRE 1376 608 1376 576
WIRE 624 720 624 672
WIRE 1376 736 1376 688
WIRE 624 848 624 816
WIRE 1376 864 1376 832
WIRE 624 976 624 928
WIRE 1376 992 1376 944
FLAG 224 288 15V
FLAG 224 448 0
FLAG 624 464 0
FLAG 624 304 VAH
IOPIN 624 304 In
FLAG 1376 480 0
FLAG 1376 320 VAL
IOPIN 1376 320 In
FLAG 624 720 0
FLAG 624 560 VBH
IOPIN 624 560 In
FLAG 1376 736 0
FLAG 1376 576 VBL
IOPIN 1376 576 In
FLAG 2640 -176 VAH
IOPIN 2640 -176 In
FLAG 2640 -144 VAL
IOPIN 2640 -144 In
FLAG 624 976 0
FLAG 624 816 VCH
IOPIN 624 816 In
FLAG 1376 992 0
FLAG 1376 832 VCL
IOPIN 1376 832 In
FLAG 2688 -16 0
FLAG 2704 -96 15V
FLAG 2640 48 VBH
IOPIN 2640 48 In
FLAG 2640 80 VBL
IOPIN 2640 80 In
FLAG 2688 208 0
FLAG 2704 128 15V
FLAG 2640 272 VCH
IOPIN 2640 272 In
FLAG 2640 304 VCL
IOPIN 2640 304 In
FLAG 2688 432 0
FLAG 2704 352 15V
FLAG 2912 -176 300V
FLAG 2912 48 300V
FLAG 2912 272 300V
FLAG 2912 384 0
FLAG 2912 160 0
FLAG 2912 -64 0
FLAG 2336 -96 300V
FLAG 2336 64 0
SYMBOL voltage 224 304 R0
WINDOW 0 42 41 Left 2
WINDOW 3 41 71 Left 2
WINDOW 123 0 0 Left 0
WINDOW 39 0 0 Left 0
SYMATTR InstName DC
SYMATTR Value 15V
SYMBOL voltage 624 320 R0
WINDOW 0 42 41 Left 2
WINDOW 3 41 71 Left 2
WINDOW 123 0 0 Left 0
WINDOW 39 0 0 Left 0
SYMATTR InstName VAH
SYMATTR Value PULSE(0 15 0 50n 50n {D/f} {1/f})
SYMBOL voltage 1376 336 R0
WINDOW 0 42 41 Left 2
WINDOW 3 41 71 Left 2
WINDOW 123 0 0 Left 0
WINDOW 39 0 0 Left 0
SYMATTR InstName VAL
SYMATTR Value PULSE(15 0 0 50n 50n {(1-D)/f} {1/f})
SYMBOL voltage 624 576 R0
WINDOW 0 42 41 Left 2
WINDOW 3 41 71 Left 2
WINDOW 123 0 0 Left 0
WINDOW 39 0 0 Left 0
SYMATTR InstName VBH
SYMATTR Value PULSE(0 15 {(120/360)/f} 50n 50n {D/f} {1/f})
SYMBOL voltage 1376 592 R0
WINDOW 0 42 41 Left 2
WINDOW 3 41 71 Left 2
WINDOW 123 0 0 Left 0
WINDOW 39 0 0 Left 0
SYMATTR InstName VBL
SYMATTR Value PULSE(15 0 {(120/360)/f} 50n 50n {(1-D)/f} {1/f})
SYMBOL voltage 624 832 R0
WINDOW 0 42 41 Left 2
WINDOW 3 41 71 Left 2
WINDOW 123 0 0 Left 0
WINDOW 39 0 0 Left 0
SYMATTR InstName VCH
SYMATTR Value PULSE(0 15 {(240/360)/f} 50n 50n {D/f} {1/f})
SYMBOL voltage 1376 848 R0
WINDOW 0 42 41 Left 2
WINDOW 3 41 71 Left 2
WINDOW 123 0 0 Left 0
WINDOW 39 0 0 Left 0
SYMATTR InstName VCL
SYMATTR Value PULSE(15 0 {(240/360)/f} 50n 50n {(1-D)/f} {1/f})
SYMBOL inverter_phase 2816 -80 R0
SYMATTR InstName X1
SYMBOL inverter_phase 2816 144 R0
SYMATTR InstName X2
SYMBOL inverter_phase 2816 368 R0
SYMATTR InstName X3
SYMBOL ind 3072 112 R270
WINDOW 0 32 56 VTop 2
WINDOW 3 5 56 VBottom 2
SYMATTR InstName LB
SYMATTR Value 100µH
SYMBOL ind 3072 32 R270
WINDOW 0 32 56 VTop 2
WINDOW 3 5 56 VBottom 2
SYMATTR InstName LA
SYMATTR Value 100µH
SYMBOL ind 3072 192 R270
WINDOW 0 32 56 VTop 2
WINDOW 3 5 56 VBottom 2
SYMATTR InstName LC
SYMATTR Value 100µH
SYMBOL voltage 2336 -80 R0
WINDOW 0 42 41 Left 2
WINDOW 3 41 71 Left 2
WINDOW 123 0 0 Left 0
WINDOW 39 0 0 Left 0
SYMATTR InstName HV
SYMATTR Value 300V
TEXT 1478 -30 Left 2 !.tran 0 10m 0 1u
TEXT 1032 -288 Left 2 !.param f=1k
TEXT 1048 -88 Left 2 !.param D=0.5
